<routes>
        <vType id="typeWE" accel="0.8" decel="4.5" sigma="0.5" length="5" minGap="2.5" maxSpeed="16.67" guiShape="passenger"/>
        <vType id="typeNS" accel="0.8" decel="4.5" sigma="0.5" length="7" minGap="3" maxSpeed="25" guiShape="police"/>

        <route id="N_to_W" edges="N_entry_i N_i W_o W_entry_o" />
        <route id="N_to_S" edges="N_entry_i N_i S_o S_entry_o" />
        <route id="N_to_E" edges="N_entry_i N_i E_o E_entry_o" />
        <route id="E_to_N" edges="E_entry_i E_i N_o N_entry_o" />
        <route id="E_to_W" edges="E_entry_i E_i W_o W_entry_o" />
        <route id="E_to_S" edges="E_entry_i E_i S_o S_entry_o" />
        <route id="S_to_N" edges="S_entry_i S_i N_o N_entry_o" />
        <route id="S_to_W" edges="S_entry_i S_i W_o W_entry_o" />
        <route id="S_to_E" edges="S_entry_i S_i E_o E_entry_o" />
        <route id="W_to_N" edges="W_entry_i W_i N_o N_entry_o" />
        <route id="W_to_E" edges="W_entry_i W_i E_o E_entry_o" />
        <route id="W_to_S" edges="W_entry_i W_i S_o S_entry_o" />
    <vehicle id="NS_0" type="typeWE" route="N_to_S" depart="0" color="1,1,1"/>
    <vehicle id="SN_1" type="typeWE" route="S_to_N" depart="0" color="1,1,1"/>
    <vehicle id="WS_2" type="typeWE" route="W_to_S" depart="0" color="1,1,1"/>
    <vehicle id="NW_3" type="typeWE" route="N_to_W" depart="1" color="1,1,1"/>
    <vehicle id="NS_4" type="typeWE" route="N_to_S" depart="1" color="1,1,1"/>
    <vehicle id="SN_5" type="typeWE" route="S_to_N" depart="1" color="1,1,1"/>
    <vehicle id="WN_6" type="typeWE" route="W_to_N" depart="1" color="1,1,1"/>
    <vehicle id="NE_7" type="typeWE" route="N_to_E" depart="2" color="1,1,1"/>
    <vehicle id="EN_8" type="typeWE" route="E_to_N" depart="2" color="1,1,1"/>
    <vehicle id="ES_9" type="typeWE" route="E_to_S" depart="3" color="1,1,1"/>
    <vehicle id="SW_10" type="typeWE" route="S_to_W" depart="3" color="1,1,1"/>
    <vehicle id="WE_11" type="typeWE" route="W_to_E" depart="3" color="1,1,1"/>
    <vehicle id="SW_12" type="typeWE" route="S_to_W" depart="4" color="1,1,1"/>
    <vehicle id="WE_13" type="typeWE" route="W_to_E" depart="4" color="1,1,1"/>
    <vehicle id="SN_14" type="typeWE" route="S_to_N" depart="5" color="1,1,1"/>
    <vehicle id="EW_15" type="typeWE" route="E_to_W" depart="7" color="1,1,1"/>
    <vehicle id="ES_16" type="typeWE" route="E_to_S" depart="7" color="1,1,1"/>
    <vehicle id="SE_17" type="typeWE" route="S_to_E" depart="7" color="1,1,1"/>
    <vehicle id="WE_18" type="typeWE" route="W_to_E" depart="7" color="1,1,1"/>
    <vehicle id="EW_19" type="typeWE" route="E_to_W" depart="8" color="1,1,1"/>
    <vehicle id="WE_20" type="typeWE" route="W_to_E" depart="8" color="1,1,1"/>
    <vehicle id="ES_21" type="typeWE" route="E_to_S" depart="9" color="1,1,1"/>
    <vehicle id="WN_22" type="typeWE" route="W_to_N" depart="9" color="1,1,1"/>
    <vehicle id="EW_23" type="typeWE" route="E_to_W" depart="10" color="1,1,1"/>
    <vehicle id="SE_24" type="typeWE" route="S_to_E" depart="10" color="1,1,1"/>
    <vehicle id="WN_25" type="typeWE" route="W_to_N" depart="10" color="1,1,1"/>
    <vehicle id="NE_26" type="typeWE" route="N_to_E" depart="11" color="1,1,1"/>
    <vehicle id="EW_27" type="typeWE" route="E_to_W" depart="11" color="1,1,1"/>
    <vehicle id="SN_28" type="typeWE" route="S_to_N" depart="11" color="1,1,1"/>
    <vehicle id="WE_29" type="typeWE" route="W_to_E" depart="12" color="1,1,1"/>
    <vehicle id="EW_30" type="typeWE" route="E_to_W" depart="13" color="1,1,1"/>
    <vehicle id="WS_31" type="typeWE" route="W_to_S" depart="13" color="1,1,1"/>
    <vehicle id="NS_32" type="typeWE" route="N_to_S" depart="14" color="1,1,1"/>
    <vehicle id="SN_33" type="typeWE" route="S_to_N" depart="14" color="1,1,1"/>
    <vehicle id="SW_34" type="typeWE" route="S_to_W" depart="14" color="1,1,1"/>
    <vehicle id="EN_35" type="typeWE" route="E_to_N" depart="15" color="1,1,1"/>
    <vehicle id="ES_36" type="typeWE" route="E_to_S" depart="16" color="1,1,1"/>
    <vehicle id="WN_37" type="typeWE" route="W_to_N" depart="16" color="1,1,1"/>
    <vehicle id="EN_38" type="typeWE" route="E_to_N" depart="17" color="1,1,1"/>
    <vehicle id="NE_39" type="typeWE" route="N_to_E" depart="18" color="1,1,1"/>
    <vehicle id="SW_40" type="typeWE" route="S_to_W" depart="18" color="1,1,1"/>
    <vehicle id="NW_41" type="typeWE" route="N_to_W" depart="19" color="1,1,1"/>
    <vehicle id="NE_42" type="typeWE" route="N_to_E" depart="19" color="1,1,1"/>
    <vehicle id="EN_43" type="typeWE" route="E_to_N" depart="19" color="1,1,1"/>
    <vehicle id="SN_44" type="typeWE" route="S_to_N" depart="19" color="1,1,1"/>
    <vehicle id="NW_45" type="typeWE" route="N_to_W" depart="21" color="1,1,1"/>
    <vehicle id="EW_46" type="typeWE" route="E_to_W" depart="21" color="1,1,1"/>
    <vehicle id="WN_47" type="typeWE" route="W_to_N" depart="21" color="1,1,1"/>
    <vehicle id="ES_48" type="typeWE" route="E_to_S" depart="22" color="1,1,1"/>
    <vehicle id="WE_49" type="typeWE" route="W_to_E" depart="22" color="1,1,1"/>
    <vehicle id="WN_50" type="typeWE" route="W_to_N" depart="22" color="1,1,1"/>
    <vehicle id="NW_51" type="typeWE" route="N_to_W" depart="23" color="1,1,1"/>
    <vehicle id="WN_52" type="typeWE" route="W_to_N" depart="23" color="1,1,1"/>
    <vehicle id="NE_53" type="typeWE" route="N_to_E" depart="24" color="1,1,1"/>
    <vehicle id="WS_54" type="typeWE" route="W_to_S" depart="24" color="1,1,1"/>
    <vehicle id="WE_55" type="typeWE" route="W_to_E" depart="24" color="1,1,1"/>
    <vehicle id="EW_56" type="typeWE" route="E_to_W" depart="25" color="1,1,1"/>
    <vehicle id="ES_57" type="typeWE" route="E_to_S" depart="25" color="1,1,1"/>
    <vehicle id="NS_58" type="typeWE" route="N_to_S" depart="26" color="1,1,1"/>
    <vehicle id="SE_59" type="typeWE" route="S_to_E" depart="26" color="1,1,1"/>
    <vehicle id="NW_60" type="typeWE" route="N_to_W" depart="27" color="1,1,1"/>
    <vehicle id="WS_61" type="typeWE" route="W_to_S" depart="27" color="1,1,1"/>
    <vehicle id="SE_62" type="typeWE" route="S_to_E" depart="28" color="1,1,1"/>
    <vehicle id="SN_63" type="typeWE" route="S_to_N" depart="28" color="1,1,1"/>
    <vehicle id="ES_64" type="typeWE" route="E_to_S" depart="29" color="1,1,1"/>
    <vehicle id="SN_65" type="typeWE" route="S_to_N" depart="29" color="1,1,1"/>
    <vehicle id="WE_66" type="typeWE" route="W_to_E" depart="29" color="1,1,1"/>
    <vehicle id="SW_67" type="typeWE" route="S_to_W" depart="30" color="1,1,1"/>
    <vehicle id="EN_68" type="typeWE" route="E_to_N" depart="31" color="1,1,1"/>
    <vehicle id="NE_69" type="typeWE" route="N_to_E" depart="32" color="1,1,1"/>
    <vehicle id="WE_70" type="typeWE" route="W_to_E" depart="32" color="1,1,1"/>
    <vehicle id="WS_71" type="typeWE" route="W_to_S" depart="33" color="1,1,1"/>
    <vehicle id="WE_72" type="typeWE" route="W_to_E" depart="33" color="1,1,1"/>
    <vehicle id="SE_73" type="typeWE" route="S_to_E" depart="34" color="1,1,1"/>
    <vehicle id="SN_74" type="typeWE" route="S_to_N" depart="34" color="1,1,1"/>
    <vehicle id="WN_75" type="typeWE" route="W_to_N" depart="34" color="1,1,1"/>
    <vehicle id="SN_76" type="typeWE" route="S_to_N" depart="35" color="1,1,1"/>
    <vehicle id="WE_77" type="typeWE" route="W_to_E" depart="35" color="1,1,1"/>
    <vehicle id="NW_78" type="typeWE" route="N_to_W" depart="36" color="1,1,1"/>
    <vehicle id="EN_79" type="typeWE" route="E_to_N" depart="36" color="1,1,1"/>
    <vehicle id="EW_80" type="typeWE" route="E_to_W" depart="38" color="1,1,1"/>
    <vehicle id="WS_81" type="typeWE" route="W_to_S" depart="38" color="1,1,1"/>
    <vehicle id="NS_82" type="typeWE" route="N_to_S" depart="39" color="1,1,1"/>
    <vehicle id="NS_83" type="typeWE" route="N_to_S" depart="40" color="1,1,1"/>
    <vehicle id="NS_84" type="typeWE" route="N_to_S" depart="41" color="1,1,1"/>
    <vehicle id="ES_85" type="typeWE" route="E_to_S" depart="41" color="1,1,1"/>
    <vehicle id="SN_86" type="typeWE" route="S_to_N" depart="41" color="1,1,1"/>
    <vehicle id="WS_87" type="typeWE" route="W_to_S" depart="41" color="1,1,1"/>
    <vehicle id="NW_88" type="typeWE" route="N_to_W" depart="42" color="1,1,1"/>
    <vehicle id="NE_89" type="typeWE" route="N_to_E" depart="42" color="1,1,1"/>
    <vehicle id="EW_90" type="typeWE" route="E_to_W" depart="42" color="1,1,1"/>
    <vehicle id="NS_91" type="typeWE" route="N_to_S" depart="43" color="1,1,1"/>
    <vehicle id="NE_92" type="typeWE" route="N_to_E" depart="43" color="1,1,1"/>
    <vehicle id="NW_93" type="typeWE" route="N_to_W" depart="44" color="1,1,1"/>
    <vehicle id="NS_94" type="typeWE" route="N_to_S" depart="44" color="1,1,1"/>
    <vehicle id="NE_95" type="typeWE" route="N_to_E" depart="44" color="1,1,1"/>
    <vehicle id="SW_96" type="typeWE" route="S_to_W" depart="44" color="1,1,1"/>
    <vehicle id="WN_97" type="typeWE" route="W_to_N" depart="44" color="1,1,1"/>
    <vehicle id="NE_98" type="typeWE" route="N_to_E" depart="45" color="1,1,1"/>
    <vehicle id="EN_99" type="typeWE" route="E_to_N" depart="45" color="1,1,1"/>
    <vehicle id="WS_100" type="typeWE" route="W_to_S" depart="45" color="1,1,1"/>
    <vehicle id="NW_101" type="typeWE" route="N_to_W" depart="46" color="1,1,1"/>
    <vehicle id="EW_102" type="typeWE" route="E_to_W" depart="46" color="1,1,1"/>
    <vehicle id="NE_103" type="typeWE" route="N_to_E" depart="47" color="1,1,1"/>
    <vehicle id="SN_104" type="typeWE" route="S_to_N" depart="48" color="1,1,1"/>
    <vehicle id="NS_105" type="typeWE" route="N_to_S" depart="49" color="1,1,1"/>
    <vehicle id="EN_106" type="typeWE" route="E_to_N" depart="49" color="1,1,1"/>
    <vehicle id="WE_107" type="typeWE" route="W_to_E" depart="49" color="1,1,1"/>
    <vehicle id="NW_108" type="typeWE" route="N_to_W" depart="50" color="1,1,1"/>
    <vehicle id="SW_109" type="typeWE" route="S_to_W" depart="50" color="1,1,1"/>
    <vehicle id="WS_110" type="typeWE" route="W_to_S" depart="51" color="1,1,1"/>
    <vehicle id="WE_111" type="typeWE" route="W_to_E" depart="51" color="1,1,1"/>
    <vehicle id="WN_112" type="typeWE" route="W_to_N" depart="51" color="1,1,1"/>
    <vehicle id="WS_113" type="typeWE" route="W_to_S" depart="52" color="1,1,1"/>
    <vehicle id="WE_114" type="typeWE" route="W_to_E" depart="52" color="1,1,1"/>
    <vehicle id="NW_115" type="typeWE" route="N_to_W" depart="53" color="1,1,1"/>
    <vehicle id="NS_116" type="typeWE" route="N_to_S" depart="53" color="1,1,1"/>
    <vehicle id="SN_117" type="typeWE" route="S_to_N" depart="53" color="1,1,1"/>
    <vehicle id="EN_118" type="typeWE" route="E_to_N" depart="54" color="1,1,1"/>
    <vehicle id="SW_119" type="typeWE" route="S_to_W" depart="54" color="1,1,1"/>
    <vehicle id="WE_120" type="typeWE" route="W_to_E" depart="54" color="1,1,1"/>
    <vehicle id="WN_121" type="typeWE" route="W_to_N" depart="54" color="1,1,1"/>
    <vehicle id="EN_122" type="typeWE" route="E_to_N" depart="55" color="1,1,1"/>
    <vehicle id="WS_123" type="typeWE" route="W_to_S" depart="56" color="1,1,1"/>
    <vehicle id="WE_124" type="typeWE" route="W_to_E" depart="56" color="1,1,1"/>
    <vehicle id="WN_125" type="typeWE" route="W_to_N" depart="56" color="1,1,1"/>
    <vehicle id="NW_126" type="typeWE" route="N_to_W" depart="57" color="1,1,1"/>
    <vehicle id="SN_127" type="typeWE" route="S_to_N" depart="58" color="1,1,1"/>
    <vehicle id="SW_128" type="typeWE" route="S_to_W" depart="58" color="1,1,1"/>
    <vehicle id="NS_129" type="typeWE" route="N_to_S" depart="59" color="1,1,1"/>
    <vehicle id="SN_130" type="typeWE" route="S_to_N" depart="59" color="1,1,1"/>
    <vehicle id="SW_131" type="typeWE" route="S_to_W" depart="59" color="1,1,1"/>
    <vehicle id="NW_132" type="typeWE" route="N_to_W" depart="60" color="1,1,1"/>
    <vehicle id="SW_133" type="typeWE" route="S_to_W" depart="60" color="1,1,1"/>
    <vehicle id="NS_134" type="typeWE" route="N_to_S" depart="61" color="1,1,1"/>
    <vehicle id="ES_135" type="typeWE" route="E_to_S" depart="61" color="1,1,1"/>
    <vehicle id="NW_136" type="typeWE" route="N_to_W" depart="64" color="1,1,1"/>
    <vehicle id="EW_137" type="typeWE" route="E_to_W" depart="64" color="1,1,1"/>
    <vehicle id="SN_138" type="typeWE" route="S_to_N" depart="64" color="1,1,1"/>
    <vehicle id="WN_139" type="typeWE" route="W_to_N" depart="64" color="1,1,1"/>
    <vehicle id="NS_140" type="typeWE" route="N_to_S" depart="67" color="1,1,1"/>
    <vehicle id="NS_141" type="typeWE" route="N_to_S" depart="68" color="1,1,1"/>
    <vehicle id="WE_142" type="typeWE" route="W_to_E" depart="68" color="1,1,1"/>
    <vehicle id="WS_143" type="typeWE" route="W_to_S" depart="69" color="1,1,1"/>
    <vehicle id="WN_144" type="typeWE" route="W_to_N" depart="70" color="1,1,1"/>
    <vehicle id="NW_145" type="typeWE" route="N_to_W" depart="71" color="1,1,1"/>
    <vehicle id="SE_146" type="typeWE" route="S_to_E" depart="71" color="1,1,1"/>
    <vehicle id="NW_147" type="typeWE" route="N_to_W" depart="72" color="1,1,1"/>
    <vehicle id="EW_148" type="typeWE" route="E_to_W" depart="72" color="1,1,1"/>
    <vehicle id="SW_149" type="typeWE" route="S_to_W" depart="72" color="1,1,1"/>
    <vehicle id="WS_150" type="typeWE" route="W_to_S" depart="72" color="1,1,1"/>
    <vehicle id="NE_151" type="typeWE" route="N_to_E" depart="73" color="1,1,1"/>
    <vehicle id="SE_152" type="typeWE" route="S_to_E" depart="73" color="1,1,1"/>
    <vehicle id="WE_153" type="typeWE" route="W_to_E" depart="73" color="1,1,1"/>
    <vehicle id="SE_154" type="typeWE" route="S_to_E" depart="74" color="1,1,1"/>
    <vehicle id="SW_155" type="typeWE" route="S_to_W" depart="75" color="1,1,1"/>
    <vehicle id="ES_156" type="typeWE" route="E_to_S" depart="77" color="1,1,1"/>
    <vehicle id="SW_157" type="typeWE" route="S_to_W" depart="77" color="1,1,1"/>
    <vehicle id="WS_158" type="typeWE" route="W_to_S" depart="77" color="1,1,1"/>
    <vehicle id="WS_159" type="typeWE" route="W_to_S" depart="78" color="1,1,1"/>
    <vehicle id="WN_160" type="typeWE" route="W_to_N" depart="78" color="1,1,1"/>
    <vehicle id="SW_161" type="typeWE" route="S_to_W" depart="79" color="1,1,1"/>
    <vehicle id="EW_162" type="typeWE" route="E_to_W" depart="80" color="1,1,1"/>
    <vehicle id="SE_163" type="typeWE" route="S_to_E" depart="80" color="1,1,1"/>
    <vehicle id="WN_164" type="typeWE" route="W_to_N" depart="80" color="1,1,1"/>
    <vehicle id="EW_165" type="typeWE" route="E_to_W" depart="81" color="1,1,1"/>
    <vehicle id="SW_166" type="typeWE" route="S_to_W" depart="81" color="1,1,1"/>
    <vehicle id="WE_167" type="typeWE" route="W_to_E" depart="81" color="1,1,1"/>
    <vehicle id="ES_168" type="typeWE" route="E_to_S" depart="82" color="1,1,1"/>
    <vehicle id="SN_169" type="typeWE" route="S_to_N" depart="82" color="1,1,1"/>
    <vehicle id="WN_170" type="typeWE" route="W_to_N" depart="82" color="1,1,1"/>
    <vehicle id="EW_171" type="typeWE" route="E_to_W" depart="83" color="1,1,1"/>
    <vehicle id="WE_172" type="typeWE" route="W_to_E" depart="83" color="1,1,1"/>
    <vehicle id="WN_173" type="typeWE" route="W_to_N" depart="83" color="1,1,1"/>
    <vehicle id="ES_174" type="typeWE" route="E_to_S" depart="84" color="1,1,1"/>
    <vehicle id="SW_175" type="typeWE" route="S_to_W" depart="84" color="1,1,1"/>
    <vehicle id="WE_176" type="typeWE" route="W_to_E" depart="84" color="1,1,1"/>
    <vehicle id="EW_177" type="typeWE" route="E_to_W" depart="85" color="1,1,1"/>
    <vehicle id="SE_178" type="typeWE" route="S_to_E" depart="85" color="1,1,1"/>
    <vehicle id="SW_179" type="typeWE" route="S_to_W" depart="85" color="1,1,1"/>
    <vehicle id="WS_180" type="typeWE" route="W_to_S" depart="85" color="1,1,1"/>
    <vehicle id="WN_181" type="typeWE" route="W_to_N" depart="85" color="1,1,1"/>
    <vehicle id="NS_182" type="typeWE" route="N_to_S" depart="86" color="1,1,1"/>
    <vehicle id="NE_183" type="typeWE" route="N_to_E" depart="86" color="1,1,1"/>
    <vehicle id="SE_184" type="typeWE" route="S_to_E" depart="86" color="1,1,1"/>
    <vehicle id="SN_185" type="typeWE" route="S_to_N" depart="86" color="1,1,1"/>
    <vehicle id="NE_186" type="typeWE" route="N_to_E" depart="87" color="1,1,1"/>
    <vehicle id="ES_187" type="typeWE" route="E_to_S" depart="87" color="1,1,1"/>
    <vehicle id="WN_188" type="typeWE" route="W_to_N" depart="87" color="1,1,1"/>
    <vehicle id="ES_189" type="typeWE" route="E_to_S" depart="88" color="1,1,1"/>
    <vehicle id="SE_190" type="typeWE" route="S_to_E" depart="88" color="1,1,1"/>
    <vehicle id="SW_191" type="typeWE" route="S_to_W" depart="88" color="1,1,1"/>
    <vehicle id="ES_192" type="typeWE" route="E_to_S" depart="89" color="1,1,1"/>
    <vehicle id="ES_193" type="typeWE" route="E_to_S" depart="90" color="1,1,1"/>
    <vehicle id="WS_194" type="typeWE" route="W_to_S" depart="90" color="1,1,1"/>
    <vehicle id="WN_195" type="typeWE" route="W_to_N" depart="90" color="1,1,1"/>
    <vehicle id="NS_196" type="typeWE" route="N_to_S" depart="91" color="1,1,1"/>
    <vehicle id="NE_197" type="typeWE" route="N_to_E" depart="91" color="1,1,1"/>
    <vehicle id="WS_198" type="typeWE" route="W_to_S" depart="91" color="1,1,1"/>
    <vehicle id="WE_199" type="typeWE" route="W_to_E" depart="92" color="1,1,1"/>
    <vehicle id="WS_200" type="typeWE" route="W_to_S" depart="93" color="1,1,1"/>
    <vehicle id="NS_201" type="typeWE" route="N_to_S" depart="94" color="1,1,1"/>
    <vehicle id="ES_202" type="typeWE" route="E_to_S" depart="94" color="1,1,1"/>
    <vehicle id="WS_203" type="typeWE" route="W_to_S" depart="94" color="1,1,1"/>
    <vehicle id="WN_204" type="typeWE" route="W_to_N" depart="94" color="1,1,1"/>
    <vehicle id="SW_205" type="typeWE" route="S_to_W" depart="95" color="1,1,1"/>
    <vehicle id="WS_206" type="typeWE" route="W_to_S" depart="95" color="1,1,1"/>
    <vehicle id="WE_207" type="typeWE" route="W_to_E" depart="95" color="1,1,1"/>
    <vehicle id="SN_208" type="typeWE" route="S_to_N" depart="96" color="1,1,1"/>
    <vehicle id="NS_209" type="typeWE" route="N_to_S" depart="97" color="1,1,1"/>
    <vehicle id="EW_210" type="typeWE" route="E_to_W" depart="97" color="1,1,1"/>
    <vehicle id="SN_211" type="typeWE" route="S_to_N" depart="97" color="1,1,1"/>
    <vehicle id="WE_212" type="typeWE" route="W_to_E" depart="97" color="1,1,1"/>
    <vehicle id="NW_213" type="typeWE" route="N_to_W" depart="98" color="1,1,1"/>
    <vehicle id="SE_214" type="typeWE" route="S_to_E" depart="98" color="1,1,1"/>
    <vehicle id="SW_215" type="typeWE" route="S_to_W" depart="98" color="1,1,1"/>
    <vehicle id="WS_216" type="typeWE" route="W_to_S" depart="98" color="1,1,1"/>
    <vehicle id="EW_217" type="typeWE" route="E_to_W" depart="99" color="1,1,1"/>
    <vehicle id="ES_218" type="typeWE" route="E_to_S" depart="99" color="1,1,1"/>
    <vehicle id="WN_219" type="typeWE" route="W_to_N" depart="99" color="1,1,1"/>
    <vehicle id="SW_220" type="typeWE" route="S_to_W" depart="100" color="1,1,1"/>
    <vehicle id="WE_221" type="typeWE" route="W_to_E" depart="100" color="1,1,1"/>
    <vehicle id="SE_222" type="typeWE" route="S_to_E" depart="101" color="1,1,1"/>
    <vehicle id="SN_223" type="typeWE" route="S_to_N" depart="101" color="1,1,1"/>
    <vehicle id="WN_224" type="typeWE" route="W_to_N" depart="101" color="1,1,1"/>
    <vehicle id="WN_225" type="typeWE" route="W_to_N" depart="102" color="1,1,1"/>
    <vehicle id="NW_226" type="typeWE" route="N_to_W" depart="103" color="1,1,1"/>
    <vehicle id="EW_227" type="typeWE" route="E_to_W" depart="103" color="1,1,1"/>
    <vehicle id="SW_228" type="typeWE" route="S_to_W" depart="103" color="1,1,1"/>
    <vehicle id="WE_229" type="typeWE" route="W_to_E" depart="103" color="1,1,1"/>
    <vehicle id="NW_230" type="typeWE" route="N_to_W" depart="105" color="1,1,1"/>
    <vehicle id="NS_231" type="typeWE" route="N_to_S" depart="105" color="1,1,1"/>
    <vehicle id="NE_232" type="typeWE" route="N_to_E" depart="105" color="1,1,1"/>
    <vehicle id="SN_233" type="typeWE" route="S_to_N" depart="105" color="1,1,1"/>
    <vehicle id="NW_234" type="typeWE" route="N_to_W" depart="106" color="1,1,1"/>
    <vehicle id="SW_235" type="typeWE" route="S_to_W" depart="106" color="1,1,1"/>
    <vehicle id="WS_236" type="typeWE" route="W_to_S" depart="106" color="1,1,1"/>
    <vehicle id="SE_237" type="typeWE" route="S_to_E" depart="107" color="1,1,1"/>
    <vehicle id="SN_238" type="typeWE" route="S_to_N" depart="109" color="1,1,1"/>
    <vehicle id="SW_239" type="typeWE" route="S_to_W" depart="109" color="1,1,1"/>
    <vehicle id="WE_240" type="typeWE" route="W_to_E" depart="109" color="1,1,1"/>
    <vehicle id="NE_241" type="typeWE" route="N_to_E" depart="110" color="1,1,1"/>
    <vehicle id="ES_242" type="typeWE" route="E_to_S" depart="110" color="1,1,1"/>
    <vehicle id="SN_243" type="typeWE" route="S_to_N" depart="110" color="1,1,1"/>
    <vehicle id="WN_244" type="typeWE" route="W_to_N" depart="110" color="1,1,1"/>
    <vehicle id="WN_245" type="typeWE" route="W_to_N" depart="112" color="1,1,1"/>
    <vehicle id="EW_246" type="typeWE" route="E_to_W" depart="113" color="1,1,1"/>
    <vehicle id="WN_247" type="typeWE" route="W_to_N" depart="113" color="1,1,1"/>
    <vehicle id="ES_248" type="typeWE" route="E_to_S" depart="114" color="1,1,1"/>
    <vehicle id="SE_249" type="typeWE" route="S_to_E" depart="114" color="1,1,1"/>
    <vehicle id="WN_250" type="typeWE" route="W_to_N" depart="114" color="1,1,1"/>
    <vehicle id="EW_251" type="typeWE" route="E_to_W" depart="115" color="1,1,1"/>
    <vehicle id="SW_252" type="typeWE" route="S_to_W" depart="115" color="1,1,1"/>
    <vehicle id="WN_253" type="typeWE" route="W_to_N" depart="115" color="1,1,1"/>
    <vehicle id="NW_254" type="typeWE" route="N_to_W" depart="116" color="1,1,1"/>
    <vehicle id="SE_255" type="typeWE" route="S_to_E" depart="116" color="1,1,1"/>
    <vehicle id="WS_256" type="typeWE" route="W_to_S" depart="116" color="1,1,1"/>
    <vehicle id="NS_257" type="typeWE" route="N_to_S" depart="117" color="1,1,1"/>
    <vehicle id="EW_258" type="typeWE" route="E_to_W" depart="117" color="1,1,1"/>
    <vehicle id="SN_259" type="typeWE" route="S_to_N" depart="117" color="1,1,1"/>
    <vehicle id="NS_260" type="typeWE" route="N_to_S" depart="118" color="1,1,1"/>
    <vehicle id="EN_261" type="typeWE" route="E_to_N" depart="118" color="1,1,1"/>
    <vehicle id="NS_262" type="typeWE" route="N_to_S" depart="119" color="1,1,1"/>
    <vehicle id="WS_263" type="typeWE" route="W_to_S" depart="119" color="1,1,1"/>
    <vehicle id="NW_264" type="typeWE" route="N_to_W" depart="120" color="1,1,1"/>
    <vehicle id="SE_265" type="typeWE" route="S_to_E" depart="120" color="1,1,1"/>
    <vehicle id="WE_266" type="typeWE" route="W_to_E" depart="120" color="1,1,1"/>
    <vehicle id="NW_267" type="typeWE" route="N_to_W" depart="121" color="1,1,1"/>
    <vehicle id="SN_268" type="typeWE" route="S_to_N" depart="121" color="1,1,1"/>
    <vehicle id="NW_269" type="typeWE" route="N_to_W" depart="122" color="1,1,1"/>
    <vehicle id="NS_270" type="typeWE" route="N_to_S" depart="123" color="1,1,1"/>
    <vehicle id="SE_271" type="typeWE" route="S_to_E" depart="123" color="1,1,1"/>
    <vehicle id="NS_272" type="typeWE" route="N_to_S" depart="124" color="1,1,1"/>
    <vehicle id="SW_273" type="typeWE" route="S_to_W" depart="124" color="1,1,1"/>
    <vehicle id="NE_274" type="typeWE" route="N_to_E" depart="125" color="1,1,1"/>
    <vehicle id="ES_275" type="typeWE" route="E_to_S" depart="125" color="1,1,1"/>
    <vehicle id="SE_276" type="typeWE" route="S_to_E" depart="125" color="1,1,1"/>
    <vehicle id="WS_277" type="typeWE" route="W_to_S" depart="126" color="1,1,1"/>
    <vehicle id="WS_278" type="typeWE" route="W_to_S" depart="127" color="1,1,1"/>
    <vehicle id="NE_279" type="typeWE" route="N_to_E" depart="128" color="1,1,1"/>
    <vehicle id="SN_280" type="typeWE" route="S_to_N" depart="128" color="1,1,1"/>
    <vehicle id="EW_281" type="typeWE" route="E_to_W" depart="129" color="1,1,1"/>
    <vehicle id="SE_282" type="typeWE" route="S_to_E" depart="129" color="1,1,1"/>
    <vehicle id="SW_283" type="typeWE" route="S_to_W" depart="129" color="1,1,1"/>
    <vehicle id="NE_284" type="typeWE" route="N_to_E" depart="130" color="1,1,1"/>
    <vehicle id="WS_285" type="typeWE" route="W_to_S" depart="130" color="1,1,1"/>
    <vehicle id="SE_286" type="typeWE" route="S_to_E" depart="131" color="1,1,1"/>
    <vehicle id="WE_287" type="typeWE" route="W_to_E" depart="131" color="1,1,1"/>
    <vehicle id="WN_288" type="typeWE" route="W_to_N" depart="131" color="1,1,1"/>
    <vehicle id="NW_289" type="typeWE" route="N_to_W" depart="132" color="1,1,1"/>
    <vehicle id="NS_290" type="typeWE" route="N_to_S" depart="132" color="1,1,1"/>
    <vehicle id="WN_291" type="typeWE" route="W_to_N" depart="132" color="1,1,1"/>
    <vehicle id="EN_292" type="typeWE" route="E_to_N" depart="133" color="1,1,1"/>
    <vehicle id="ES_293" type="typeWE" route="E_to_S" depart="133" color="1,1,1"/>
    <vehicle id="NW_294" type="typeWE" route="N_to_W" depart="134" color="1,1,1"/>
    <vehicle id="NS_295" type="typeWE" route="N_to_S" depart="134" color="1,1,1"/>
    <vehicle id="EW_296" type="typeWE" route="E_to_W" depart="135" color="1,1,1"/>
    <vehicle id="ES_297" type="typeWE" route="E_to_S" depart="135" color="1,1,1"/>
    <vehicle id="EN_298" type="typeWE" route="E_to_N" depart="136" color="1,1,1"/>
    <vehicle id="WE_299" type="typeWE" route="W_to_E" depart="136" color="1,1,1"/>
    <vehicle id="EW_300" type="typeWE" route="E_to_W" depart="137" color="1,1,1"/>
    <vehicle id="NS_301" type="typeWE" route="N_to_S" depart="138" color="1,1,1"/>
    <vehicle id="SN_302" type="typeWE" route="S_to_N" depart="138" color="1,1,1"/>
    <vehicle id="WS_303" type="typeWE" route="W_to_S" depart="139" color="1,1,1"/>
    <vehicle id="WN_304" type="typeWE" route="W_to_N" depart="139" color="1,1,1"/>
    <vehicle id="ES_305" type="typeWE" route="E_to_S" depart="140" color="1,1,1"/>
    <vehicle id="NW_306" type="typeWE" route="N_to_W" depart="141" color="1,1,1"/>
    <vehicle id="EN_307" type="typeWE" route="E_to_N" depart="141" color="1,1,1"/>
    <vehicle id="EW_308" type="typeWE" route="E_to_W" depart="141" color="1,1,1"/>
    <vehicle id="NW_309" type="typeWE" route="N_to_W" depart="142" color="1,1,1"/>
    <vehicle id="ES_310" type="typeWE" route="E_to_S" depart="143" color="1,1,1"/>
    <vehicle id="NS_311" type="typeWE" route="N_to_S" depart="144" color="1,1,1"/>
    <vehicle id="ES_312" type="typeWE" route="E_to_S" depart="144" color="1,1,1"/>
    <vehicle id="SN_313" type="typeWE" route="S_to_N" depart="144" color="1,1,1"/>
    <vehicle id="WS_314" type="typeWE" route="W_to_S" depart="144" color="1,1,1"/>
    <vehicle id="WE_315" type="typeWE" route="W_to_E" depart="144" color="1,1,1"/>
    <vehicle id="NW_316" type="typeWE" route="N_to_W" depart="145" color="1,1,1"/>
    <vehicle id="SN_317" type="typeWE" route="S_to_N" depart="145" color="1,1,1"/>
    <vehicle id="SW_318" type="typeWE" route="S_to_W" depart="145" color="1,1,1"/>
    <vehicle id="NE_319" type="typeWE" route="N_to_E" depart="146" color="1,1,1"/>
    <vehicle id="NS_320" type="typeWE" route="N_to_S" depart="148" color="1,1,1"/>
    <vehicle id="SN_321" type="typeWE" route="S_to_N" depart="149" color="1,1,1"/>
    <vehicle id="NE_322" type="typeWE" route="N_to_E" depart="150" color="1,1,1"/>
    <vehicle id="ES_323" type="typeWE" route="E_to_S" depart="150" color="1,1,1"/>
    <vehicle id="SN_324" type="typeWE" route="S_to_N" depart="150" color="1,1,1"/>
    <vehicle id="SN_325" type="typeWE" route="S_to_N" depart="151" color="1,1,1"/>
    <vehicle id="NS_326" type="typeWE" route="N_to_S" depart="152" color="1,1,1"/>
    <vehicle id="EN_327" type="typeWE" route="E_to_N" depart="152" color="1,1,1"/>
    <vehicle id="NW_328" type="typeWE" route="N_to_W" depart="153" color="1,1,1"/>
    <vehicle id="NE_329" type="typeWE" route="N_to_E" depart="153" color="1,1,1"/>
    <vehicle id="NW_330" type="typeWE" route="N_to_W" depart="154" color="1,1,1"/>
    <vehicle id="NS_331" type="typeWE" route="N_to_S" depart="154" color="1,1,1"/>
    <vehicle id="EW_332" type="typeWE" route="E_to_W" depart="154" color="1,1,1"/>
    <vehicle id="WS_333" type="typeWE" route="W_to_S" depart="154" color="1,1,1"/>
    <vehicle id="NE_334" type="typeWE" route="N_to_E" depart="155" color="1,1,1"/>
    <vehicle id="EW_335" type="typeWE" route="E_to_W" depart="155" color="1,1,1"/>
    <vehicle id="ES_336" type="typeWE" route="E_to_S" depart="155" color="1,1,1"/>
    <vehicle id="NE_337" type="typeWE" route="N_to_E" depart="156" color="1,1,1"/>
    <vehicle id="ES_338" type="typeWE" route="E_to_S" depart="156" color="1,1,1"/>
    <vehicle id="SE_339" type="typeWE" route="S_to_E" depart="156" color="1,1,1"/>
    <vehicle id="NS_340" type="typeWE" route="N_to_S" depart="157" color="1,1,1"/>
    <vehicle id="SE_341" type="typeWE" route="S_to_E" depart="157" color="1,1,1"/>
    <vehicle id="SN_342" type="typeWE" route="S_to_N" depart="157" color="1,1,1"/>
    <vehicle id="SN_343" type="typeWE" route="S_to_N" depart="158" color="1,1,1"/>
    <vehicle id="WE_344" type="typeWE" route="W_to_E" depart="158" color="1,1,1"/>
    <vehicle id="NW_345" type="typeWE" route="N_to_W" depart="159" color="1,1,1"/>
    <vehicle id="EW_346" type="typeWE" route="E_to_W" depart="159" color="1,1,1"/>
    <vehicle id="SN_347" type="typeWE" route="S_to_N" depart="159" color="1,1,1"/>