<?xml version="1.0" encoding="UTF-8"?>

<!-- generated on 2022-05-22 17:23:27 by Eclipse SUMO netedit Version 1.11.0
<configuration xmlns:xsi="http://www.w3.org/2001/XMLSchema-instance" xsi:noNamespaceSchemaLocation="http://sumo.dlr.de/xsd/netconvertConfiguration.xsd">

    <input>
        <sumo-net-file value="D:\Mohammad\Downloads\map.net.xml"/>
    </input>

    <output>
        <output-file value="D:\Mohammad\Downloads\map.net.xml"/>
        <output.street-names value="true"/>
    </output>

    <processing>
        <geometry.min-radius.fix.railways value="false"/>
        <geometry.max-grade.fix value="false"/>
        <offset.disable-normalization value="true"/>
        <lefthand value="false"/>
    </processing>

    <junctions>
        <no-turnarounds value="true"/>
        <junctions.corner-detail value="5"/>
        <junctions.limit-turn-speed value="5.5"/>
        <rectangular-lane-cut value="false"/>
    </junctions>

    <pedestrian>
        <walkingareas value="false"/>
    </pedestrian>

    <report>
        <aggregate-warnings value="5"/>
    </report>

</configuration>
-->

<net version="1.9" junctionCornerDetail="5" limitTurnSpeed="5.50" xmlns:xsi="http://www.w3.org/2001/XMLSchema-instance" xsi:noNamespaceSchemaLocation="http://sumo.dlr.de/xsd/net_file.xsd">

    <location netOffset="1020.00,1020.00" convBoundary="-510.00,-510.00,510.00,510.00" origBoundary="-1020.00,-1020.00,10.00,10.00" projParameter="!"/>

    <edge id=":E_entry_0" function="internal">
        <lane id=":E_entry_0_0" index="0" speed="3.65" length="4.67" shape="510.00,-1.60 511.20,-0.80 511.60,0.00 511.20,0.80 510.00,1.60"/>
    </edge>
    <edge id=":E_node_0" function="internal">
        <lane id=":E_node_0_0" index="0" speed="25.00" length="0.10" shape="500.00,8.00 500.00,8.00"/>
        <lane id=":E_node_0_1" index="1" speed="25.00" length="0.10" shape="500.00,4.80 500.00,4.80"/>
        <lane id=":E_node_0_2" index="2" speed="25.00" length="0.10" shape="500.00,1.60 500.00,1.60"/>
    </edge>
    <edge id=":E_node_3" function="internal">
        <lane id=":E_node_3_0" index="0" speed="25.00" length="0.10" shape="500.00,-8.00 500.00,-8.00"/>
        <lane id=":E_node_3_1" index="1" speed="25.00" length="0.10" shape="500.00,-4.80 500.00,-4.80"/>
        <lane id=":E_node_3_2" index="2" speed="25.00" length="0.10" shape="500.00,-1.60 500.00,-1.60"/>
    </edge>
    <edge id=":N_entry_0" function="internal">
        <lane id=":N_entry_0_0" index="0" speed="3.65" length="4.67" shape="1.60,510.00 0.80,511.20 0.00,511.60 -0.80,511.20 -1.60,510.00"/>
    </edge>
    <edge id=":N_node_0" function="internal">
        <lane id=":N_node_0_0" index="0" speed="25.00" length="0.10" shape="-8.00,500.00 -8.00,500.00"/>
        <lane id=":N_node_0_1" index="1" speed="25.00" length="0.10" shape="-4.80,500.00 -4.80,500.00"/>
        <lane id=":N_node_0_2" index="2" speed="25.00" length="0.10" shape="-1.60,500.00 -1.60,500.00"/>
    </edge>
    <edge id=":N_node_3" function="internal">
        <lane id=":N_node_3_0" index="0" speed="25.00" length="0.10" shape="8.00,500.00 8.00,500.00"/>
        <lane id=":N_node_3_1" index="1" speed="25.00" length="0.10" shape="4.80,500.00 4.80,500.00"/>
        <lane id=":N_node_3_2" index="2" speed="25.00" length="0.10" shape="1.60,500.00 1.60,500.00"/>
    </edge>
    <edge id=":S_entry_0" function="internal">
        <lane id=":S_entry_0_0" index="0" speed="3.65" length="4.67" shape="-1.60,-510.00 -0.80,-511.20 0.00,-511.60 0.80,-511.20 1.60,-510.00"/>
    </edge>
    <edge id=":S_node_0" function="internal">
        <lane id=":S_node_0_0" index="0" speed="25.00" length="0.10" shape="-8.00,-500.00 -8.00,-500.00"/>
        <lane id=":S_node_0_1" index="1" speed="25.00" length="0.10" shape="-4.80,-500.00 -4.80,-500.00"/>
        <lane id=":S_node_0_2" index="2" speed="25.00" length="0.10" shape="-1.60,-500.00 -1.60,-500.00"/>
    </edge>
    <edge id=":S_node_3" function="internal">
        <lane id=":S_node_3_0" index="0" speed="25.00" length="0.10" shape="8.00,-500.00 8.00,-500.00"/>
        <lane id=":S_node_3_1" index="1" speed="25.00" length="0.10" shape="4.80,-500.00 4.80,-500.00"/>
        <lane id=":S_node_3_2" index="2" speed="25.00" length="0.10" shape="1.60,-500.00 1.60,-500.00"/>
    </edge>
    <edge id=":W_entry_0" function="internal">
        <lane id=":W_entry_0_0" index="0" speed="3.65" length="4.67" shape="-510.00,1.60 -511.20,0.80 -511.60,0.00 -511.20,-0.80 -510.00,-1.60"/>
    </edge>
    <edge id=":W_node_0" function="internal">
        <lane id=":W_node_0_0" index="0" speed="25.00" length="0.10" shape="-500.00,8.00 -500.00,8.00"/>
        <lane id=":W_node_0_1" index="1" speed="25.00" length="0.10" shape="-500.00,4.80 -500.00,4.80"/>
        <lane id=":W_node_0_2" index="2" speed="25.00" length="0.10" shape="-500.00,1.60 -500.00,1.60"/>
    </edge>
    <edge id=":W_node_3" function="internal">
        <lane id=":W_node_3_0" index="0" speed="25.00" length="0.10" shape="-500.00,-8.00 -500.00,-8.00"/>
        <lane id=":W_node_3_1" index="1" speed="25.00" length="0.10" shape="-500.00,-4.80 -500.00,-4.80"/>
        <lane id=":W_node_3_2" index="2" speed="25.00" length="0.10" shape="-500.00,-1.60 -500.00,-1.60"/>
    </edge>
    <edge id=":tl_0_0" function="internal">
        <lane id=":tl_0_0_0" index="0" speed="6.51" length="9.03" shape="-8.00,13.60 -8.35,11.15 -9.40,9.40 -11.15,8.35 -13.60,8.00"/>
    </edge>
    <edge id=":tl_0_1" function="internal">
        <lane id=":tl_0_1_0" index="0" speed="25.00" length="27.28" shape="-8.00,13.60 -8.00,-13.60"/>
        <lane id=":tl_0_1_1" index="1" speed="25.00" length="27.28" shape="-4.80,13.60 -4.80,-13.60"/>
        <lane id=":tl_0_1_2" index="2" speed="25.00" length="27.28" shape="-4.80,13.60 -4.30,5.50 -3.20,-0.00 -2.10,-5.50 -1.60,-13.60"/>
    </edge>
    <edge id=":tl_0_4" function="internal">
        <lane id=":tl_0_4_0" index="0" speed="10.36" length="24.51" shape="-1.60,13.60 -0.65,6.95 2.20,2.20 6.95,-0.65 13.60,-1.60"/>
    </edge>
    <edge id=":tl_0_5" function="internal">
        <lane id=":tl_0_5_0" index="0" speed="6.51" length="9.03" shape="13.60,8.00 11.15,8.35 9.40,9.40 8.35,11.15 8.00,13.60"/>
    </edge>
    <edge id=":tl_0_6" function="internal">
        <lane id=":tl_0_6_0" index="0" speed="25.00" length="27.28" shape="13.60,8.00 -13.60,8.00"/>
        <lane id=":tl_0_6_1" index="1" speed="25.00" length="27.28" shape="13.60,4.80 -13.60,4.80"/>
        <lane id=":tl_0_6_2" index="2" speed="25.00" length="27.28" shape="13.60,4.80 5.50,4.30 -0.00,3.20 -5.50,2.10 -13.60,1.60"/>
    </edge>
    <edge id=":tl_0_9" function="internal">
        <lane id=":tl_0_9_0" index="0" speed="10.36" length="24.51" shape="13.60,1.60 6.95,0.65 2.20,-2.20 -0.65,-6.95 -1.60,-13.60"/>
    </edge>
    <edge id=":tl_0_10" function="internal">
        <lane id=":tl_0_10_0" index="0" speed="6.51" length="9.03" shape="8.00,-13.60 8.35,-11.15 9.40,-9.40 11.15,-8.35 13.60,-8.00"/>
    </edge>
    <edge id=":tl_0_11" function="internal">
        <lane id=":tl_0_11_0" index="0" speed="25.00" length="27.28" shape="8.00,-13.60 8.00,13.60"/>
        <lane id=":tl_0_11_1" index="1" speed="25.00" length="27.28" shape="4.80,-13.60 4.80,13.60"/>
        <lane id=":tl_0_11_2" index="2" speed="25.00" length="27.28" shape="4.80,-13.60 4.30,-5.50 3.20,0.00 2.10,5.50 1.60,13.60"/>
    </edge>
    <edge id=":tl_0_14" function="internal">
        <lane id=":tl_0_14_0" index="0" speed="10.36" length="24.51" shape="1.60,-13.60 0.65,-6.95 -2.20,-2.20 -6.95,0.65 -13.60,1.60"/>
    </edge>
    <edge id=":tl_0_15" function="internal">
        <lane id=":tl_0_15_0" index="0" speed="6.51" length="9.03" shape="-13.60,-8.00 -11.15,-8.35 -9.40,-9.40 -8.35,-11.15 -8.00,-13.60"/>
    </edge>
    <edge id=":tl_0_16" function="internal">
        <lane id=":tl_0_16_0" index="0" speed="25.00" length="27.28" shape="-13.60,-8.00 13.60,-8.00"/>
        <lane id=":tl_0_16_1" index="1" speed="25.00" length="27.28" shape="-13.60,-4.80 13.60,-4.80"/>
        <lane id=":tl_0_16_2" index="2" speed="25.00" length="27.28" shape="-13.60,-4.80 -5.50,-4.30 0.00,-3.20 5.50,-2.10 13.60,-1.60"/>
    </edge>
    <edge id=":tl_0_19" function="internal">
        <lane id=":tl_0_19_0" index="0" speed="10.36" length="24.51" shape="-13.60,-1.60 -6.95,-0.65 -2.20,2.20 0.65,6.95 1.60,13.60"/>
    </edge>

    <edge id="E_entry_i" from="E_entry" to="E_node" priority="50">
        <lane id="E_entry_i_0" index="0" speed="25.00" length="10.00" shape="510.00,8.00 500.00,8.00"/>
        <lane id="E_entry_i_1" index="1" speed="25.00" length="10.00" shape="510.00,4.80 500.00,4.80"/>
        <lane id="E_entry_i_2" index="2" speed="25.00" length="10.00" shape="510.00,1.60 500.00,1.60"/>
    </edge>
    <edge id="E_entry_o" from="E_node" to="E_entry" priority="50">
        <lane id="E_entry_o_0" index="0" speed="25.00" length="10.00" shape="500.00,-8.00 510.00,-8.00"/>
        <lane id="E_entry_o_1" index="1" speed="25.00" length="10.00" shape="500.00,-4.80 510.00,-4.80"/>
        <lane id="E_entry_o_2" index="2" speed="25.00" length="10.00" shape="500.00,-1.60 510.00,-1.60"/>
    </edge>
    <edge id="E_i" from="E_node" to="tl_0" name="East Approach Entry" priority="50">
        <lane id="E_i_0" index="0" speed="25.00" length="486.40" shape="500.00,8.00 13.60,8.00"/>
        <lane id="E_i_1" index="1" speed="25.00" length="486.40" shape="500.00,4.80 13.60,4.80"/>
        <lane id="E_i_2" index="2" speed="25.00" length="486.40" shape="500.00,1.60 13.60,1.60"/>
    </edge>
    <edge id="E_o" from="tl_0" to="E_node" name="East Approach Exit" priority="50">
        <lane id="E_o_0" index="0" speed="25.00" length="486.40" shape="13.60,-8.00 500.00,-8.00"/>
        <lane id="E_o_1" index="1" speed="25.00" length="486.40" shape="13.60,-4.80 500.00,-4.80"/>
        <lane id="E_o_2" index="2" speed="25.00" length="486.40" shape="13.60,-1.60 500.00,-1.60"/>
    </edge>
    <edge id="N_entry_i" from="N_entry" to="N_node" priority="50">
        <lane id="N_entry_i_0" index="0" speed="25.00" length="10.00" shape="-8.00,510.00 -8.00,500.00"/>
        <lane id="N_entry_i_1" index="1" speed="25.00" length="10.00" shape="-4.80,510.00 -4.80,500.00"/>
        <lane id="N_entry_i_2" index="2" speed="25.00" length="10.00" shape="-1.60,510.00 -1.60,500.00"/>
    </edge>
    <edge id="N_entry_o" from="N_node" to="N_entry" priority="50">
        <lane id="N_entry_o_0" index="0" speed="25.00" length="10.00" shape="8.00,500.00 8.00,510.00"/>
        <lane id="N_entry_o_1" index="1" speed="25.00" length="10.00" shape="4.80,500.00 4.80,510.00"/>
        <lane id="N_entry_o_2" index="2" speed="25.00" length="10.00" shape="1.60,500.00 1.60,510.00"/>
    </edge>
    <edge id="N_i" from="N_node" to="tl_0" name="North Approach Entry" priority="50">
        <lane id="N_i_0" index="0" speed="25.00" length="486.40" shape="-8.00,500.00 -8.00,13.60"/>
        <lane id="N_i_1" index="1" speed="25.00" length="486.40" shape="-4.80,500.00 -4.80,13.60"/>
        <lane id="N_i_2" index="2" speed="25.00" length="486.40" shape="-1.60,500.00 -1.60,13.60"/>
    </edge>
    <edge id="N_o" from="tl_0" to="N_node" name="North Approach Exit" priority="50">
        <lane id="N_o_0" index="0" speed="25.00" length="486.40" shape="8.00,13.60 8.00,500.00"/>
        <lane id="N_o_1" index="1" speed="25.00" length="486.40" shape="4.80,13.60 4.80,500.00"/>
        <lane id="N_o_2" index="2" speed="25.00" length="486.40" shape="1.60,13.60 1.60,500.00"/>
    </edge>
    <edge id="S_entry_i" from="S_entry" to="S_node" priority="50">
        <lane id="S_entry_i_0" index="0" speed="25.00" length="10.00" shape="8.00,-510.00 8.00,-500.00"/>
        <lane id="S_entry_i_1" index="1" speed="25.00" length="10.00" shape="4.80,-510.00 4.80,-500.00"/>
        <lane id="S_entry_i_2" index="2" speed="25.00" length="10.00" shape="1.60,-510.00 1.60,-500.00"/>
    </edge>
    <edge id="S_entry_o" from="S_node" to="S_entry" priority="50">
        <lane id="S_entry_o_0" index="0" speed="25.00" length="10.00" shape="-8.00,-500.00 -8.00,-510.00"/>
        <lane id="S_entry_o_1" index="1" speed="25.00" length="10.00" shape="-4.80,-500.00 -4.80,-510.00"/>
        <lane id="S_entry_o_2" index="2" speed="25.00" length="10.00" shape="-1.60,-500.00 -1.60,-510.00"/>
    </edge>
    <edge id="S_i" from="S_node" to="tl_0" name="South Approach Entry" priority="50">
        <lane id="S_i_0" index="0" speed="25.00" length="486.40" shape="8.00,-500.00 8.00,-13.60"/>
        <lane id="S_i_1" index="1" speed="25.00" length="486.40" shape="4.80,-500.00 4.80,-13.60"/>
        <lane id="S_i_2" index="2" speed="25.00" length="486.40" shape="1.60,-500.00 1.60,-13.60"/>
    </edge>
    <edge id="S_o" from="tl_0" to="S_node" name="South Approach Exit" priority="50">
        <lane id="S_o_0" index="0" speed="25.00" length="486.40" shape="-8.00,-13.60 -8.00,-500.00"/>
        <lane id="S_o_1" index="1" speed="25.00" length="486.40" shape="-4.80,-13.60 -4.80,-500.00"/>
        <lane id="S_o_2" index="2" speed="25.00" length="486.40" shape="-1.60,-13.60 -1.60,-500.00"/>
    </edge>
    <edge id="W_entry_i" from="W_entry" to="W_node" priority="50">
        <lane id="W_entry_i_0" index="0" speed="25.00" length="10.00" shape="-510.00,-8.00 -500.00,-8.00"/>
        <lane id="W_entry_i_1" index="1" speed="25.00" length="10.00" shape="-510.00,-4.80 -500.00,-4.80"/>
        <lane id="W_entry_i_2" index="2" speed="25.00" length="10.00" shape="-510.00,-1.60 -500.00,-1.60"/>
    </edge>
    <edge id="W_entry_o" from="W_node" to="W_entry" priority="50">
        <lane id="W_entry_o_0" index="0" speed="25.00" length="10.00" shape="-500.00,8.00 -510.00,8.00"/>
        <lane id="W_entry_o_1" index="1" speed="25.00" length="10.00" shape="-500.00,4.80 -510.00,4.80"/>
        <lane id="W_entry_o_2" index="2" speed="25.00" length="10.00" shape="-500.00,1.60 -510.00,1.60"/>
    </edge>
    <edge id="W_i" from="W_node" to="tl_0" name="West Approach Entry" priority="50">
        <lane id="W_i_0" index="0" speed="25.00" length="486.40" shape="-500.00,-8.00 -13.60,-8.00"/>
        <lane id="W_i_1" index="1" speed="25.00" length="486.40" shape="-500.00,-4.80 -13.60,-4.80"/>
        <lane id="W_i_2" index="2" speed="25.00" length="486.40" shape="-500.00,-1.60 -13.60,-1.60"/>
    </edge>
    <edge id="W_o" from="tl_0" to="W_node" name="West Approach Exit" priority="50">
        <lane id="W_o_0" index="0" speed="25.00" length="486.40" shape="-13.60,8.00 -500.00,8.00"/>
        <lane id="W_o_1" index="1" speed="25.00" length="486.40" shape="-13.60,4.80 -500.00,4.80"/>
        <lane id="W_o_2" index="2" speed="25.00" length="486.40" shape="-13.60,1.60 -500.00,1.60"/>
    </edge>

    <tlLogic id="tl_0" type="static" programID="0" offset="0">
        <phase duration="29" state="GGGGrrrrrrGGGGrrrrrr"/>
        <phase duration="5"  state="yyyyrrrrrryyyyrrrrrr"/>
        <phase duration="6"  state="rrrrGrrrrrrrrrGrrrrr"/>
        <phase duration="5"  state="rrrryrrrrrrrrryrrrrr"/>
        <phase duration="29" state="rrrrrGGGGrrrrrrGGGGr"/>
        <phase duration="5"  state="rrrrryyyyrrrrrryyyyr"/>
        <phase duration="6"  state="rrrrrrrrrGrrrrrrrrrG"/>
        <phase duration="5"  state="rrrrrrrrryrrrrrrrrry"/>
    </tlLogic>

    <junction id="E_entry" type="priority" x="510.00" y="0.00" incLanes="E_entry_o_0 E_entry_o_1 E_entry_o_2" intLanes=":E_entry_0_0" shape="510.00,0.00 510.00,-9.60 510.00,0.00">
        <request index="0" response="0" foes="0" cont="0"/>
    </junction>
    <junction id="E_node" type="priority" x="500.00" y="0.00" incLanes="E_entry_i_0 E_entry_i_1 E_entry_i_2 E_o_0 E_o_1 E_o_2" intLanes=":E_node_0_0 :E_node_0_1 :E_node_0_2 :E_node_3_0 :E_node_3_1 :E_node_3_2" shape="500.00,9.60 500.00,-9.60 500.00,9.60">
        <request index="0" response="000000" foes="000000" cont="0"/>
        <request index="1" response="000000" foes="000000" cont="0"/>
        <request index="2" response="000000" foes="000000" cont="0"/>
        <request index="3" response="000000" foes="000000" cont="0"/>
        <request index="4" response="000000" foes="000000" cont="0"/>
        <request index="5" response="000000" foes="000000" cont="0"/>
    </junction>
    <junction id="N_entry" type="priority" x="0.00" y="510.00" incLanes="N_entry_o_0 N_entry_o_1 N_entry_o_2" intLanes=":N_entry_0_0" shape="0.00,510.00 9.60,510.00 0.00,510.00">
        <request index="0" response="0" foes="0" cont="0"/>
    </junction>
    <junction id="N_node" type="priority" x="0.00" y="500.00" incLanes="N_entry_i_0 N_entry_i_1 N_entry_i_2 N_o_0 N_o_1 N_o_2" intLanes=":N_node_0_0 :N_node_0_1 :N_node_0_2 :N_node_3_0 :N_node_3_1 :N_node_3_2" shape="-9.60,500.00 9.60,500.00 -9.60,500.00">
        <request index="0" response="000000" foes="000000" cont="0"/>
        <request index="1" response="000000" foes="000000" cont="0"/>
        <request index="2" response="000000" foes="000000" cont="0"/>
        <request index="3" response="000000" foes="000000" cont="0"/>
        <request index="4" response="000000" foes="000000" cont="0"/>
        <request index="5" response="000000" foes="000000" cont="0"/>
    </junction>
    <junction id="S_entry" type="priority" x="0.00" y="-510.00" incLanes="S_entry_o_0 S_entry_o_1 S_entry_o_2" intLanes=":S_entry_0_0" shape="0.00,-510.00 -9.60,-510.00 0.00,-510.00">
        <request index="0" response="0" foes="0" cont="0"/>
    </junction>
    <junction id="S_node" type="priority" x="0.00" y="-500.00" incLanes="S_o_0 S_o_1 S_o_2 S_entry_i_0 S_entry_i_1 S_entry_i_2" intLanes=":S_node_0_0 :S_node_0_1 :S_node_0_2 :S_node_3_0 :S_node_3_1 :S_node_3_2" shape="-9.60,-500.00 9.60,-500.00 -9.60,-500.00">
        <request index="0" response="000000" foes="000000" cont="0"/>
        <request index="1" response="000000" foes="000000" cont="0"/>
        <request index="2" response="000000" foes="000000" cont="0"/>
        <request index="3" response="000000" foes="000000" cont="0"/>
        <request index="4" response="000000" foes="000000" cont="0"/>
        <request index="5" response="000000" foes="000000" cont="0"/>
    </junction>
    <junction id="W_entry" type="priority" x="-510.00" y="0.00" incLanes="W_entry_o_0 W_entry_o_1 W_entry_o_2" intLanes=":W_entry_0_0" shape="-510.00,0.00 -510.00,9.60 -510.00,0.00">
        <request index="0" response="0" foes="0" cont="0"/>
    </junction>
    <junction id="W_node" type="priority" x="-500.00" y="0.00" incLanes="W_o_0 W_o_1 W_o_2 W_entry_i_0 W_entry_i_1 W_entry_i_2" intLanes=":W_node_0_0 :W_node_0_1 :W_node_0_2 :W_node_3_0 :W_node_3_1 :W_node_3_2" shape="-500.00,9.60 -500.00,-9.60 -500.00,9.60">
        <request index="0" response="000000" foes="000000" cont="0"/>
        <request index="1" response="000000" foes="000000" cont="0"/>
        <request index="2" response="000000" foes="000000" cont="0"/>
        <request index="3" response="000000" foes="000000" cont="0"/>
        <request index="4" response="000000" foes="000000" cont="0"/>
        <request index="5" response="000000" foes="000000" cont="0"/>
    </junction>
    <junction id="tl_0" type="traffic_light" x="0.00" y="0.00" incLanes="N_i_0 N_i_1 N_i_2 E_i_0 E_i_1 E_i_2 S_i_0 S_i_1 S_i_2 W_i_0 W_i_1 W_i_2" intLanes=":tl_0_0_0 :tl_0_1_0 :tl_0_1_1 :tl_0_1_2 :tl_0_4_0 :tl_0_5_0 :tl_0_6_0 :tl_0_6_1 :tl_0_6_2 :tl_0_9_0 :tl_0_10_0 :tl_0_11_0 :tl_0_11_1 :tl_0_11_2 :tl_0_14_0 :tl_0_15_0 :tl_0_16_0 :tl_0_16_1 :tl_0_16_2 :tl_0_19_0" shape="-9.60,13.60 9.60,13.60 10.04,11.38 10.60,10.60 11.38,10.04 12.38,9.71 13.60,9.60 13.60,-9.60 11.38,-10.04 10.60,-10.60 10.04,-11.38 9.71,-12.38 9.60,-13.60 -9.60,-13.60 -10.04,-11.38 -10.60,-10.60 -11.38,-10.04 -12.38,-9.71 -13.60,-9.60 -13.60,9.60 -11.38,10.04 -10.60,10.60 -10.04,11.38 -9.71,12.38">
        <request index="0"  response="00000000000000000000" foes="00000000000111000000" cont="0"/>
        <request index="1"  response="00000000000000000000" foes="11111100001111000000" cont="0"/>
        <request index="2"  response="00000000000000000000" foes="11111100001111000000" cont="0"/>
        <request index="3"  response="00000000000000000000" foes="11111100001111000000" cont="0"/>
        <request index="4"  response="00000011100000000000" foes="11110011101111000000" cont="0"/>
        <request index="5"  response="00000011100000000000" foes="00000011100000000000" cont="0"/>
        <request index="6"  response="00000111100000011111" foes="10000111100000011111" cont="0"/>
        <request index="7"  response="00000111100000011111" foes="10000111100000011111" cont="0"/>
        <request index="8"  response="00000111100000011111" foes="10000111100000011111" cont="0"/>
        <request index="9"  response="01110111100000011110" foes="01110111100000011110" cont="0"/>
        <request index="10" response="00000000000000000000" foes="01110000000000000000" cont="0"/>
        <request index="11" response="00000000000000000000" foes="11110000001111110000" cont="0"/>
        <request index="12" response="00000000000000000000" foes="11110000001111110000" cont="0"/>
        <request index="13" response="00000000000000000000" foes="11110000001111110000" cont="0"/>
        <request index="14" response="00000000000000001110" foes="11110000001111001110" cont="0"/>
        <request index="15" response="00000000000000001110" foes="00000000000000001110" cont="0"/>
        <request index="16" response="00000111110000011110" foes="00000111111000011110" cont="0"/>
        <request index="17" response="00000111110000011110" foes="00000111111000011110" cont="0"/>
        <request index="18" response="00000111110000011110" foes="00000111111000011110" cont="0"/>
        <request index="19" response="00000111100111011110" foes="00000111100111011110" cont="0"/>
    </junction>

    <connection from="E_entry_i" to="E_i" fromLane="0" toLane="0" via=":E_node_0_0" dir="s" state="M"/>
    <connection from="E_entry_i" to="E_i" fromLane="1" toLane="1" via=":E_node_0_1" dir="s" state="M"/>
    <connection from="E_entry_i" to="E_i" fromLane="2" toLane="2" via=":E_node_0_2" dir="s" state="M"/>
    <connection from="E_entry_o" to="E_entry_i" fromLane="2" toLane="2" via=":E_entry_0_0" dir="t" state="M"/>
    <connection from="E_i" to="N_o" fromLane="0" toLane="0" via=":tl_0_5_0" tl="tl_0" linkIndex="5" dir="r" state="o"/>
    <connection from="E_i" to="W_o" fromLane="0" toLane="0" via=":tl_0_6_0" tl="tl_0" linkIndex="6" dir="s" state="o"/>
    <connection from="E_i" to="W_o" fromLane="1" toLane="1" via=":tl_0_6_1" tl="tl_0" linkIndex="7" dir="s" state="o"/>
    <connection from="E_i" to="W_o" fromLane="1" toLane="2" via=":tl_0_6_2" tl="tl_0" linkIndex="8" dir="s" state="o"/>
    <connection from="E_i" to="S_o" fromLane="2" toLane="2" via=":tl_0_9_0" tl="tl_0" linkIndex="9" dir="l" state="o"/>
    <connection from="E_o" to="E_entry_o" fromLane="0" toLane="0" via=":E_node_3_0" dir="s" state="M"/>
    <connection from="E_o" to="E_entry_o" fromLane="1" toLane="1" via=":E_node_3_1" dir="s" state="M"/>
    <connection from="E_o" to="E_entry_o" fromLane="2" toLane="2" via=":E_node_3_2" dir="s" state="M"/>
    <connection from="N_entry_i" to="N_i" fromLane="0" toLane="0" via=":N_node_0_0" dir="s" state="M"/>
    <connection from="N_entry_i" to="N_i" fromLane="1" toLane="1" via=":N_node_0_1" dir="s" state="M"/>
    <connection from="N_entry_i" to="N_i" fromLane="2" toLane="2" via=":N_node_0_2" dir="s" state="M"/>
    <connection from="N_entry_o" to="N_entry_i" fromLane="2" toLane="2" via=":N_entry_0_0" dir="t" state="M"/>
    <connection from="N_i" to="W_o" fromLane="0" toLane="0" via=":tl_0_0_0" tl="tl_0" linkIndex="0" dir="r" state="O"/>
    <connection from="N_i" to="S_o" fromLane="0" toLane="0" via=":tl_0_1_0" tl="tl_0" linkIndex="1" dir="s" state="O"/>
    <connection from="N_i" to="S_o" fromLane="1" toLane="1" via=":tl_0_1_1" tl="tl_0" linkIndex="2" dir="s" state="O"/>
    <connection from="N_i" to="S_o" fromLane="1" toLane="2" via=":tl_0_1_2" tl="tl_0" linkIndex="3" dir="s" state="O"/>
    <connection from="N_i" to="E_o" fromLane="2" toLane="2" via=":tl_0_4_0" tl="tl_0" linkIndex="4" dir="l" state="o"/>
    <connection from="N_o" to="N_entry_o" fromLane="0" toLane="0" via=":N_node_3_0" dir="s" state="M"/>
    <connection from="N_o" to="N_entry_o" fromLane="1" toLane="1" via=":N_node_3_1" dir="s" state="M"/>
    <connection from="N_o" to="N_entry_o" fromLane="2" toLane="2" via=":N_node_3_2" dir="s" state="M"/>
    <connection from="S_entry_i" to="S_i" fromLane="0" toLane="0" via=":S_node_3_0" dir="s" state="M"/>
    <connection from="S_entry_i" to="S_i" fromLane="1" toLane="1" via=":S_node_3_1" dir="s" state="M"/>
    <connection from="S_entry_i" to="S_i" fromLane="2" toLane="2" via=":S_node_3_2" dir="s" state="M"/>
    <connection from="S_entry_o" to="S_entry_i" fromLane="2" toLane="2" via=":S_entry_0_0" dir="t" state="M"/>
    <connection from="S_i" to="E_o" fromLane="0" toLane="0" via=":tl_0_10_0" tl="tl_0" linkIndex="10" dir="r" state="O"/>
    <connection from="S_i" to="N_o" fromLane="0" toLane="0" via=":tl_0_11_0" tl="tl_0" linkIndex="11" dir="s" state="O"/>
    <connection from="S_i" to="N_o" fromLane="1" toLane="1" via=":tl_0_11_1" tl="tl_0" linkIndex="12" dir="s" state="O"/>
    <connection from="S_i" to="N_o" fromLane="1" toLane="2" via=":tl_0_11_2" tl="tl_0" linkIndex="13" dir="s" state="O"/>
    <connection from="S_i" to="W_o" fromLane="2" toLane="2" via=":tl_0_14_0" tl="tl_0" linkIndex="14" dir="l" state="o"/>
    <connection from="S_o" to="S_entry_o" fromLane="0" toLane="0" via=":S_node_0_0" dir="s" state="M"/>
    <connection from="S_o" to="S_entry_o" fromLane="1" toLane="1" via=":S_node_0_1" dir="s" state="M"/>
    <connection from="S_o" to="S_entry_o" fromLane="2" toLane="2" via=":S_node_0_2" dir="s" state="M"/>
    <connection from="W_entry_i" to="W_i" fromLane="0" toLane="0" via=":W_node_3_0" dir="s" state="M"/>
    <connection from="W_entry_i" to="W_i" fromLane="1" toLane="1" via=":W_node_3_1" dir="s" state="M"/>
    <connection from="W_entry_i" to="W_i" fromLane="2" toLane="2" via=":W_node_3_2" dir="s" state="M"/>
    <connection from="W_entry_o" to="W_entry_i" fromLane="2" toLane="2" via=":W_entry_0_0" dir="t" state="M"/>
    <connection from="W_i" to="S_o" fromLane="0" toLane="0" via=":tl_0_15_0" tl="tl_0" linkIndex="15" dir="r" state="o"/>
    <connection from="W_i" to="E_o" fromLane="0" toLane="0" via=":tl_0_16_0" tl="tl_0" linkIndex="16" dir="s" state="o"/>
    <connection from="W_i" to="E_o" fromLane="1" toLane="1" via=":tl_0_16_1" tl="tl_0" linkIndex="17" dir="s" state="o"/>
    <connection from="W_i" to="E_o" fromLane="1" toLane="2" via=":tl_0_16_2" tl="tl_0" linkIndex="18" dir="s" state="o"/>
    <connection from="W_i" to="N_o" fromLane="2" toLane="2" via=":tl_0_19_0" tl="tl_0" linkIndex="19" dir="l" state="o"/>
    <connection from="W_o" to="W_entry_o" fromLane="0" toLane="0" via=":W_node_0_0" dir="s" state="M"/>
    <connection from="W_o" to="W_entry_o" fromLane="1" toLane="1" via=":W_node_0_1" dir="s" state="M"/>
    <connection from="W_o" to="W_entry_o" fromLane="2" toLane="2" via=":W_node_0_2" dir="s" state="M"/>

    <connection from=":E_entry_0" to="E_entry_i" fromLane="0" toLane="2" dir="t" state="M"/>
    <connection from=":E_node_0" to="E_i" fromLane="0" toLane="0" dir="s" state="M"/>
    <connection from=":E_node_0" to="E_i" fromLane="1" toLane="1" dir="s" state="M"/>
    <connection from=":E_node_0" to="E_i" fromLane="2" toLane="2" dir="s" state="M"/>
    <connection from=":E_node_3" to="E_entry_o" fromLane="0" toLane="0" dir="s" state="M"/>
    <connection from=":E_node_3" to="E_entry_o" fromLane="1" toLane="1" dir="s" state="M"/>
    <connection from=":E_node_3" to="E_entry_o" fromLane="2" toLane="2" dir="s" state="M"/>
    <connection from=":N_entry_0" to="N_entry_i" fromLane="0" toLane="2" dir="t" state="M"/>
    <connection from=":N_node_0" to="N_i" fromLane="0" toLane="0" dir="s" state="M"/>
    <connection from=":N_node_0" to="N_i" fromLane="1" toLane="1" dir="s" state="M"/>
    <connection from=":N_node_0" to="N_i" fromLane="2" toLane="2" dir="s" state="M"/>
    <connection from=":N_node_3" to="N_entry_o" fromLane="0" toLane="0" dir="s" state="M"/>
    <connection from=":N_node_3" to="N_entry_o" fromLane="1" toLane="1" dir="s" state="M"/>
    <connection from=":N_node_3" to="N_entry_o" fromLane="2" toLane="2" dir="s" state="M"/>
    <connection from=":S_entry_0" to="S_entry_i" fromLane="0" toLane="2" dir="t" state="M"/>
    <connection from=":S_node_0" to="S_entry_o" fromLane="0" toLane="0" dir="s" state="M"/>
    <connection from=":S_node_0" to="S_entry_o" fromLane="1" toLane="1" dir="s" state="M"/>
    <connection from=":S_node_0" to="S_entry_o" fromLane="2" toLane="2" dir="s" state="M"/>
    <connection from=":S_node_3" to="S_i" fromLane="0" toLane="0" dir="s" state="M"/>
    <connection from=":S_node_3" to="S_i" fromLane="1" toLane="1" dir="s" state="M"/>
    <connection from=":S_node_3" to="S_i" fromLane="2" toLane="2" dir="s" state="M"/>
    <connection from=":W_entry_0" to="W_entry_i" fromLane="0" toLane="2" dir="t" state="M"/>
    <connection from=":W_node_0" to="W_entry_o" fromLane="0" toLane="0" dir="s" state="M"/>
    <connection from=":W_node_0" to="W_entry_o" fromLane="1" toLane="1" dir="s" state="M"/>
    <connection from=":W_node_0" to="W_entry_o" fromLane="2" toLane="2" dir="s" state="M"/>
    <connection from=":W_node_3" to="W_i" fromLane="0" toLane="0" dir="s" state="M"/>
    <connection from=":W_node_3" to="W_i" fromLane="1" toLane="1" dir="s" state="M"/>